Version 4
SHEET 1 1024 680
WIRE -192 -464 -336 -464
WIRE 96 -448 -96 -448
WIRE 352 -448 176 -448
WIRE -192 -416 -192 -464
WIRE -96 -416 -96 -448
WIRE -544 -352 -768 -352
WIRE -384 -352 -464 -352
WIRE -336 -352 -336 -464
WIRE -336 -352 -384 -352
WIRE -288 -352 -336 -352
WIRE -384 -336 -384 -352
WIRE 416 -304 128 -304
WIRE 672 -304 416 -304
WIRE 944 -304 672 -304
WIRE -384 -256 -384 -272
WIRE -768 -240 -768 -272
WIRE 352 -224 352 -448
WIRE 416 -224 416 -304
WIRE 416 -224 352 -224
WIRE -288 -160 -336 -160
WIRE 224 -160 0 -160
WIRE 416 -160 416 -224
WIRE 416 -160 224 -160
WIRE -336 -64 -336 -160
WIRE -288 -64 -336 -64
WIRE 224 -48 224 -160
WIRE 416 -48 416 -160
WIRE 672 -32 672 -304
WIRE -288 32 -528 32
WIRE 48 32 0 32
WIRE 128 32 128 -304
WIRE -528 112 -528 32
WIRE 224 128 224 16
WIRE 224 128 0 128
WIRE 416 128 416 32
WIRE 416 128 224 128
WIRE 416 176 416 128
WIRE -528 304 -528 192
WIRE 416 304 416 256
WIRE 672 304 672 32
FLAG -384 -256 0
FLAG -768 -240 0
FLAG -96 192 0
FLAG -528 304 0
FLAG 416 304 0
FLAG 672 304 0
FLAG -288 -256 0
FLAG 0 -256 0
FLAG 944 -224 0
SYMBOL PowerProducts\\LT8640S -144 -112 R0
SYMATTR InstName U1
SYMBOL cap -400 -336 R0
SYMATTR InstName C1
SYMATTR Value 4.7µ
SYMATTR SpiceLine V=16 Rser=2.5 Lser=1.5n
SYMBOL cap 208 -48 R0
SYMATTR InstName C2
SYMATTR Value 10p
SYMATTR SpiceLine V=50 Rser=100m Lser=50n
SYMBOL cap 656 -32 R0
SYMATTR InstName C3
SYMATTR Value 100µ
SYMATTR SpiceLine V=20 Rser=150m Lser=3n
SYMBOL ind 144 16 R90
WINDOW 0 5 56 VBottom 2
WINDOW 3 -26 139 VBottom 2
SYMATTR InstName L1
SYMATTR Value flux={3.3u*10.5A}*tanh(x/{10.5A})
SYMATTR SpiceLine Rser=11m Cpar=0.133p
SYMBOL res 400 -64 R0
SYMATTR InstName R1
SYMATTR Value 1Meg
SYMATTR SpiceLine tol=5 pwr=0.25
SYMBOL res 400 160 R0
SYMATTR InstName R2
SYMATTR Value 240k
SYMATTR SpiceLine tol=5 pwr=0.25
SYMBOL res -544 96 R0
SYMATTR InstName R3
SYMATTR Value 43K
SYMATTR SpiceLine tol=5 pwr=0.25
SYMBOL voltage -768 -368 R0
WINDOW 123 0 0 Left 0
WINDOW 39 37 76 Left 2
SYMATTR SpiceLine Rser=100m
SYMATTR InstName V1
SYMATTR Value 9
SYMBOL ind -448 -368 R90
WINDOW 0 5 56 VBottom 2
WINDOW 3 32 56 VTop 2
SYMATTR InstName L2
SYMATTR Value 100n
SYMBOL res 192 -464 R90
WINDOW 0 0 56 VBottom 2
WINDOW 3 32 56 VTop 2
SYMATTR InstName R5
SYMATTR Value 100k
SYMATTR SpiceLine tol=5 pwr=0.25
SYMBOL res 928 -320 R0
SYMATTR InstName R4
SYMATTR Value 2
TEXT -1152 344 Left 2 !.tran 1m
