Version 4
SHEET 1 1748 680
WIRE -288 32 -448 32
WIRE -192 32 -208 32
WIRE -96 32 -192 32
WIRE -48 32 -96 32
WIRE 64 32 32 32
WIRE 112 32 64 32
WIRE 224 32 176 32
WIRE 336 32 224 32
WIRE 400 32 336 32
WIRE 496 32 400 32
WIRE 576 32 496 32
WIRE 624 32 576 32
WIRE 736 32 704 32
WIRE 768 32 736 32
WIRE 912 32 848 32
WIRE 224 64 224 32
WIRE -96 80 -96 32
WIRE 64 80 64 32
WIRE 336 80 336 32
WIRE -192 192 -192 32
WIRE -176 192 -192 192
WIRE 224 192 224 144
WIRE 224 192 144 192
WIRE 336 192 336 144
WIRE 336 192 224 192
WIRE 224 208 224 192
FLAG -96 368 0
FLAG -448 112 0
FLAG 224 288 0
FLAG 736 96 0
FLAG 496 96 0
FLAG 576 96 0
FLAG 400 96 0
FLAG 64 304 0
FLAG 1024 160 0
SYMBOL PowerProducts\\LT8330 -16 192 R0
SYMATTR InstName U1
SYMBOL cap -112 304 R0
SYMATTR InstName C1
SYMATTR Value 1µ
SYMATTR SpiceLine V=50 Rser=1.6 Lser=3n
SYMBOL voltage -448 16 R0
WINDOW 123 0 0 Left 0
WINDOW 39 24 124 Left 2
SYMATTR SpiceLine Rser=100m
SYMATTR InstName V1
SYMATTR Value 9
SYMBOL ind -64 48 R270
WINDOW 0 32 56 VTop 2
WINDOW 3 96 70 VBottom 2
SYMATTR InstName L1
SYMATTR Value flux={6.8u*1.2A}*tanh(x/{1.2A})
SYMATTR SpiceLine Rser=0.13 Cpar=1.84p
SYMBOL res 208 48 R0
SYMATTR InstName R1
SYMATTR Value 1Meg
SYMATTR SpiceLine tol=5 pwr=0.25
SYMBOL res 208 192 R0
SYMATTR InstName R2
SYMATTR Value 150k
SYMATTR SpiceLine tol=5 pwr=0.25
SYMBOL cap 320 80 R0
SYMATTR InstName C2
SYMATTR Value 4.7p
SYMATTR SpiceLine V=50 Rser=100m Lser=50n
SYMBOL schottky 112 48 R270
WINDOW 0 32 32 VTop 2
WINDOW 3 0 32 VBottom 2
SYMATTR InstName D1
SYMATTR Value PMEG6010AED
SYMBOL ind 608 48 R270
WINDOW 0 32 56 VTop 2
WINDOW 3 110 55 VBottom 2
SYMATTR InstName L2
SYMATTR Value flux={22u*7A}*tanh(x/{7A})
SYMATTR SpiceLine Rser=0.047 Cpar=2.88p
SYMBOL ind 752 48 R270
WINDOW 0 32 56 VTop 2
WINDOW 3 82 34 VBottom 2
SYMATTR InstName L3
SYMATTR Value flux={22u*7A}*tanh(x/{7A})
SYMATTR SpiceLine Rser=0.047 Cpar=2.88p
SYMBOL cap 720 32 R0
SYMATTR InstName C4
SYMATTR Value 0.001µ
SYMATTR SpiceLine V=25 Rser=100m Lser=0.2n
SYMBOL res 1008 64 R0
SYMATTR InstName R3
SYMATTR Value 37,1428
SYMBOL ind -304 48 R270
WINDOW 0 32 56 VTop 2
WINDOW 3 5 56 VBottom 2
SYMATTR InstName L4
SYMATTR Value 100n
SYMBOL cap 384 32 R0
SYMATTR InstName C6
SYMATTR Value 22µ
SYMATTR SpiceLine V=50 Rser=75m Lser=3n
SYMBOL cap 480 32 R0
SYMATTR InstName C3
SYMATTR Value 1µ
SYMATTR SpiceLine V=50 Rser=1.6 Lser=3n
SYMBOL cap 560 32 R0
SYMATTR InstName C5
SYMATTR Value 1µ
SYMATTR SpiceLine V=50 Rser=1.6 Lser=3n
TEXT -482 392 Left 2 !.tran 1m
