Version 4
SHEET 1 1584 680
WIRE -176 -32 -272 -32
WIRE -64 -32 -96 -32
WIRE 0 -32 -64 -32
WIRE 96 -32 0 -32
WIRE 400 -32 224 -32
WIRE -272 0 -272 -32
WIRE 400 0 400 -32
WIRE 96 32 96 -32
WIRE 224 32 224 -32
WIRE 400 96 400 64
WIRE 400 96 288 96
WIRE 576 96 400 96
WIRE 752 96 656 96
WIRE 848 96 752 96
WIRE 928 96 848 96
WIRE 1008 96 928 96
WIRE 1072 96 1008 96
WIRE 1184 96 1152 96
WIRE 1216 96 1184 96
WIRE 1328 96 1296 96
WIRE 0 176 0 -32
WIRE 32 176 0 176
WIRE 400 176 288 176
WIRE 752 176 752 96
WIRE 752 176 400 176
WIRE 400 256 400 240
WIRE 400 256 288 256
WIRE 752 256 400 256
FLAG 848 160 0
FLAG 752 336 0
FLAG 160 304 0
FLAG -272 80 0
FLAG 1440 256 0
FLAG 928 160 0
FLAG 1008 160 0
FLAG -64 32 0
FLAG 1184 160 0
SYMBOL PowerProducts\\LT3470 160 176 R0
SYMATTR InstName U1
SYMBOL cap 384 0 R0
SYMATTR InstName C2
SYMATTR Value 0.22µ
SYMATTR SpiceLine V=20 Rser=25 Lser=0.8n
SYMBOL cap 384 176 R0
SYMATTR InstName C3
SYMATTR Value 22p
SYMATTR SpiceLine V=50 Rser=100m Lser=50n
SYMBOL cap 832 96 R0
WINDOW 3 27 51 Left 2
SYMATTR Value 22µ
SYMATTR InstName C4
SYMATTR SpiceLine V=20 Rser=700m Lser=3n
SYMBOL res 736 160 R0
SYMATTR InstName R1
SYMATTR Value 470k
SYMATTR SpiceLine tol=5 pwr=0.25
SYMBOL res 736 240 R0
SYMATTR InstName R2
SYMATTR Value 200k
SYMATTR SpiceLine tol=5 pwr=0.25
SYMBOL ind 672 80 R90
WINDOW 0 5 56 VBottom 2
WINDOW 3 32 56 VTop 2
SYMATTR InstName L1
SYMATTR Value flux={15u*0.9A}*tanh(x/{0.9A})
SYMATTR SpiceLine Rser=0.51 Cpar=1.87p
SYMBOL voltage -272 -16 R0
WINDOW 123 0 0 Left 0
WINDOW 39 24 124 Left 2
SYMATTR SpiceLine Rser=100m
SYMATTR InstName V1
SYMATTR Value 9
SYMBOL ind -80 -48 R90
WINDOW 0 5 56 VBottom 2
WINDOW 3 32 56 VTop 2
SYMATTR InstName L2
SYMATTR Value 100n
SYMBOL res 1424 160 R0
SYMATTR InstName R3
SYMATTR Value 26,666666
SYMBOL cap -80 -32 R0
SYMATTR InstName C8
SYMATTR Value 1µ
SYMATTR SpiceLine V=50 Rser=1.6 Lser=3n
SYMBOL cap 912 96 R0
SYMATTR InstName C1
SYMATTR Value 1µ
SYMATTR SpiceLine V=50 Rser=1.6 Lser=3n
SYMBOL cap 992 96 R0
SYMATTR InstName C5
SYMATTR Value 1µ
SYMATTR SpiceLine V=50 Rser=1.6 Lser=3n
SYMBOL ind 1056 112 R270
WINDOW 0 32 56 VTop 2
WINDOW 3 110 55 VBottom 2
SYMATTR InstName L3
SYMATTR Value flux={22u*7A}*tanh(x/{7A})
SYMATTR SpiceLine Rser=0.047 Cpar=2.88p
SYMBOL ind 1200 112 R270
WINDOW 0 32 56 VTop 2
WINDOW 3 82 34 VBottom 2
SYMATTR InstName L4
SYMATTR Value flux={22u*7A}*tanh(x/{7A})
SYMATTR SpiceLine Rser=0.047 Cpar=2.88p
SYMBOL cap 1168 96 R0
SYMATTR InstName C6
SYMATTR Value 0.001µ
SYMATTR SpiceLine V=25 Rser=100m Lser=0.2n
TEXT -112 232 Left 2 !.tran 2m
