Version 4
SHEET 1 1284 680
WIRE -480 -160 -624 -160
WIRE -288 -160 -400 -160
WIRE -128 -160 -288 -160
WIRE 0 -160 -128 -160
WIRE 48 -160 0 -160
WIRE 160 -160 128 -160
WIRE 240 -160 160 -160
WIRE 384 -160 304 -160
WIRE 448 -160 384 -160
WIRE 592 -160 528 -160
WIRE 784 -160 592 -160
WIRE 880 -160 784 -160
WIRE 976 -160 880 -160
WIRE 1056 -160 976 -160
WIRE 1168 -160 1056 -160
WIRE 384 -128 384 -160
WIRE 592 -128 592 -160
WIRE 784 -112 784 -160
WIRE -624 -96 -624 -160
WIRE -288 -96 -288 -160
WIRE 0 -80 0 -160
WIRE 160 -80 160 -160
WIRE 1168 -64 1168 -160
WIRE 384 -32 384 -64
WIRE -128 -16 -128 -160
WIRE -80 -16 -128 -16
WIRE 336 -16 240 -16
WIRE 592 -16 592 -64
WIRE -80 80 -416 80
WIRE 784 80 784 -32
WIRE 784 80 240 80
WIRE 784 144 784 80
WIRE -80 176 -288 176
WIRE 464 176 240 176
WIRE -80 272 -176 272
WIRE 464 288 464 256
WIRE 784 288 784 224
WIRE -416 304 -416 80
WIRE -288 304 -288 256
WIRE -288 304 -416 304
WIRE 464 304 464 288
WIRE -288 336 -288 304
FLAG -624 -16 0
FLAG -288 -32 0
FLAG 464 352 0
FLAG 80 336 0
FLAG -176 336 0
FLAG 1168 16 0
FLAG 240 272 0
FLAG 592 -16 0
FLAG -288 336 0
FLAG 384 -32 0
FLAG 784 288 0
FLAG 976 -96 0
FLAG 1056 -96 0
FLAG 336 48 0
FLAG 880 -96 0
SYMBOL PowerProducts\\LT8333 80 128 R0
SYMATTR InstName U1
SYMBOL cap -304 -96 R0
SYMATTR InstName C1
SYMATTR Value 10µ
SYMATTR SpiceLine V=50 Rser=100m Lser=3n
SYMBOL voltage -624 -112 R0
WINDOW 123 0 0 Left 0
WINDOW 39 24 44 Left 2
SYMATTR SpiceLine Rser=100m
SYMATTR InstName V1
SYMATTR Value 9
SYMBOL ind -384 -176 R90
WINDOW 0 5 56 VBottom 2
WINDOW 3 32 56 VTop 2
SYMATTR InstName L3
SYMATTR Value 100n
SYMBOL res 768 -128 R0
SYMATTR InstName R1
SYMATTR Value 1Meg
SYMATTR SpiceLine tol=5 pwr=0.25
SYMBOL res 768 128 R0
SYMATTR InstName R2
SYMATTR Value 65k
SYMATTR SpiceLine tol=5 pwr=0.25
SYMBOL cap 448 288 R0
SYMATTR InstName C5
SYMATTR Value 1.5n
SYMATTR SpiceLine V=100 Rser=100m Lser=50n
SYMBOL res 448 160 R0
SYMATTR InstName R3
SYMATTR Value 39k
SYMATTR SpiceLine tol=5 pwr=0.25
SYMBOL res -304 160 R0
SYMATTR InstName R4
SYMATTR Value 27k
SYMATTR SpiceLine tol=5 pwr=0.25
SYMBOL cap -192 272 R0
SYMATTR InstName C7
SYMATTR Value 0.1µ
SYMATTR SpiceLine V=20 Rser=25 Lser=0.8n
SYMBOL cap 576 -128 R0
SYMATTR InstName C3
SYMATTR Value 10µ
SYMATTR SpiceLine V=50 Rser=100m Lser=3n
SYMBOL cap 240 -176 M90
WINDOW 0 0 32 VBottom 2
WINDOW 3 32 32 VTop 2
SYMATTR InstName C2
SYMATTR Value 1µ
SYMATTR SpiceLine V=16 Irms=0 Rser=0.007 Lser=0 mfg="TDK" pn="C3216X7RIC105K" type="X7R"
SYMBOL schottky 368 -128 R0
SYMATTR InstName D1
SYMATTR Value PMEG4005AEA
SYMBOL res 1152 -80 R0
SYMATTR InstName R5
SYMATTR Value 75
SYMBOL ind2 432 -176 M90
WINDOW 0 4 56 VBottom 2
WINDOW 3 32 56 VTop 2
SYMATTR InstName L1
SYMATTR Value 6.8µ
SYMATTR SpiceLine Ipk=1.24 Rser=0.043 Rpar=640.56 Cpar=0 mfg="Coilcraft" pn="MSS5131-682"
SYMBOL ind2 144 -176 R90
WINDOW 0 4 56 VBottom 2
WINDOW 3 32 56 VTop 2
SYMATTR InstName L2
SYMATTR Value 6.8µ
SYMATTR SpiceLine Ipk=1.24 Rser=0.043 Rpar=640.56 Cpar=0 mfg="Coilcraft" pn="MSS5131-682"
SYMBOL cap 864 -160 R0
SYMATTR InstName C4
SYMATTR Value 22µ
SYMATTR SpiceLine V=50 Rser=75m Lser=3n
SYMBOL cap 320 -16 R0
SYMATTR InstName C8
SYMATTR Value 1µ
SYMATTR SpiceLine V=50 Rser=1.6 Lser=3n
SYMBOL cap 960 -160 R0
SYMATTR InstName C9
SYMATTR Value 1µ
SYMATTR SpiceLine V=50 Rser=1.6 Lser=3n
SYMBOL cap 1040 -160 R0
SYMATTR InstName C10
SYMATTR Value 1µ
SYMATTR SpiceLine V=50 Rser=1.6 Lser=3n
TEXT -656 376 Left 2 !.tran 0 20m 0 1u
